@<TRIPOS>MOLECULE
*****
 24 24 0 0 0
SMALL
GASTEIGER

@<TRIPOS>ATOM
	1	N	2.6431	-1.0329	3.6389	N.pl3	1	UNL1	0
	2	N	4.6869	-0.4824	3.8507	N.pl3	1	UNL1	0
	3	C	0.0439	0.0375	1.4489	C.3	1	UNL1	0
	4	C	0.9399	-1.0568	1.9486	C.3	1	UNL1	0
	5	C	1.2369	-0.833	3.4017	C.3	1	UNL1	0
	6	C	4.1331	5.0981	3.9967	C.3	2	UNL2	0
	7	C	5.4859	6.1991	1.5101	C.3	2	UNL2	0
	8	C	2.4878	5.7119	1.5184	C.3	2	UNL2	0
	9	C	3.4598	-0.021	3.5986	C.2	1	UNL1	-1
	10	C	4.5282	-1.9284	4.0556	C.2	1	UNL1	-1
	11	C	3.2224	-2.1676	3.9023	C.2	1	UNL1	-1
	12	C	5.9179	0.2815	3.9103	C.2	1	UNL1	0
	13	C	7.131	-0.3164	3.5479	C.2	1	UNL1	-1
	14	C	8.3196	0.4212	3.6053	C.2	1	UNL1	-1
	15	C	8.2951	1.7567	4.0251	C.2	1	UNL1	-1
	16	C	7.082	2.3545	4.3874	C.2	1	UNL1	-1
	17	C	5.8934	1.617	4.3299	C.2	1	UNL1	-1
	18	O	4.3742	3.5734	1.5977	O.3	2	UNL2	1
	19	PT	3.0201	1.8649	3.1529	Pt	1	UNL1	0
	20	CL	5.2772	2.4385	3.3153	Cl	1	UNL1	0
	21	CL	0.7732	1.3011	2.999	Cl	1	UNL1	0
	22	SI	0	0	0	Si	1	UNL1	-1
	23	SI	4.3706	3.5682	0	Si	2	UNL2	-1
	24	SI	4.1289	5.0921	2.1367	Si	2	UNL2	0
@<TRIPOS>BOND
     1     1    11    1
     2     2    10    1
     3     3    22    1
     4     4     3    1
     5     4     5    1
     6     5     1    1
     7     6    24    1
     8     8    24    1
     9     9     1    1
    10     9     2    1
    11     9    19    1
    12    11    10    2
    13    12     2    1
    14    12    13    2
    15    14    13    1
    16    15    14    2
    17    16    15    1
    18    16    17    2
    19    17    12    1
    20    18    23    1
    21    19    20    1
    22    19    21    1
    23    24     7    1
    24    24    18    1
