@<TRIPOS>MOLECULE
*****
 27 31 0 0 0
SMALL
GASTEIGER

@<TRIPOS>ATOM
      1 RH          0.0000    0.0000    0.0000 Rh      1  UNL1        0.0000
      2 N          -2.0448    0.2444    0.2794 N.4     1  UNL1        0.0000
      3 N          -0.6294   -1.1945   -1.5912 N.3     1  UNL1        0.0000
      4 C          -2.5320   -1.6345    1.9246 C.3     1  UNL1        0.0000
      5 C          -2.5270   -0.1501    1.6414 C.3     1  UNL1        0.0000
      6 C          -2.2001    1.7301    0.0590 C.3     1  UNL1        0.0000
      7 C          -2.1121    1.8777   -1.4434 C.3     1  UNL1        0.0000
      8 C          -2.9694    0.7115   -1.9328 C.3     1  UNL1        0.0000
      9 C          -2.8101   -0.4007   -0.8759 C.3     1  UNL1        0.0000
     10 C          -2.0456   -1.6141   -1.3498 C.3     1  UNL1        0.0000
     11 C           3.0863   -1.5055   -1.7572 C.ar    1  UNL1        0.0000
     12 C           4.0425   -2.2220   -2.4313 C.ar    1  UNL1        0.0000
     13 C           2.8133   -1.7748   -0.3742 C.ar    1  UNL1        0.0000
     14 C           4.7805   -3.2047   -1.7423 C.ar    1  UNL1        0.0000
     15 C           3.5897   -2.7716    0.3049 C.ar    1  UNL1        0.0000
     16 C           4.5550   -3.4701   -0.3777 C.ar    1  UNL1        0.0000
     17 C           1.8834   -0.9563    0.2893 C.2     1  UNL1        0.0000
     18 C           1.3940   -0.9921    1.6541 C.3     1  UNL1        0.0000
     19 C           1.0197   -2.1494    2.3956 C.ar    1  UNL1        0.0000
     20 C           0.7973   -3.3938    1.7324 C.ar    1  UNL1        0.0000
     21 C           0.7793   -2.0739    3.7983 C.ar    1  UNL1        0.0000
     22 C           0.4073   -4.5047    2.4431 C.ar    1  UNL1        0.0000
     23 C           0.2119   -4.4130    3.8329 C.ar    1  UNL1        0.0000
     24 C           0.3975   -3.1982    4.5021 C.ar    1  UNL1        0.0000
     25 C           1.3272    0.3885    2.2664 C.2     1  UNL1        0.0000
     26 O           0.6236    1.2022    1.6550 O.3     1  UNL1        0.0000
     27 O           2.0115    0.6243    3.3303 O.2     1  UNL1        0.0000
@<TRIPOS>BOND
     1    12    11   ar
     2    12    14   ar
     3     8     7    1
     4     8     9    1
     5    11    13   ar
     6    14    16   ar
     7     3    10    1
     8     3     1    1
     9     7     6    1
    10    10     9    1
    11     9     2    1
    12    16    15   ar
    13    13    17    1
    14    13    15   ar
    15     1     2    1
    16     1    17    2
    17     1    26    1
    18     6     2    1
    19     2     5    1
    20    17    18    1
    21     5     4    1
    22    18    25    1
    23    18    19    1
    24    26    25    1
    25    20    19   ar
    26    20    22   ar
    27    25    27    2
    28    19    21   ar
    29    22    23   ar
    30    21    24   ar
    31    23    24   ar
