@<TRIPOS>MOLECULE
*****
 19 20 0 0 0
SMALL
GASTEIGER

@<TRIPOS>ATOM
      1 Sc         -0.2203   -0.4736    3.4201 Sc      1  UNL111      0.0000
      2 N           1.0035   -2.0855    4.5265 N.3     1  UNL111      0.0000
      3 N          -1.2433   -2.1441    4.3407 N.3     1  UNL111      0.0000
      4 C          -0.1395   -2.6619    4.8795 C.3     1  UNL111      0.0000
      5 C           2.2863   -2.5782    5.0261 C.3     1  UNL111      0.0000
      6 C          -2.6090   -2.5450    4.6779 C.3     1  UNL111      0.0000
      7 C           2.6340   -3.9611    4.4588 C.3     1  UNL111      0.0000
      8 C           2.2191   -2.6234    6.5513 C.3     1  UNL111      0.0000
      9 C          -2.9217   -3.9324    4.1061 C.3     1  UNL111      0.0000
     10 C          -2.9549   -2.4583    6.1683 C.3     1  UNL111      0.0000
     11 N          -1.3312    1.2564    4.0495 N.3     1  UNL111      0.0000
     12 N           0.9131    1.2784    3.8883 N.3     1  UNL111      0.0000
     13 C          -0.2041    1.9384    4.1934 C.3     1  UNL111      0.0000
     14 C          -2.6957    1.7497    4.1722 C.3     1  UNL111      0.0000
     15 C           2.2602    1.7803    4.1247 C.3     1  UNL111      0.0000
     16 C          -3.0687    2.8268    3.1546 C.3     1  UNL111      0.0000
     17 C          -2.8700    2.2446    5.6126 C.3     1  UNL111      0.0000
     18 C           2.4669    2.2059    5.5790 C.3     1  UNL111      0.0000
     19 C           2.4847    2.9449    3.1600 C.3     1  UNL111      0.0000
@<TRIPOS>BOND
     1     9     6    1
     2     6    10    1
     3     6     3    1
     4    16    14    1
     5    19    15    1
     6     1    12    1
     7     1    11    1
     8     3     4    1
     9    12    15    1
    10    12    13    1
    11    11    14    1
    12    11    13    1
    13    15    18    1
    14    14    17    1
    15     4     2    1
    16     2     5    1
    17     5     7    1
    18     5     8    1
    19     3     1    1
    20     2     1    1
