@<TRIPOS>MOLECULE
*****
 21 22 0 0 0
SMALL
GASTEIGER

@<TRIPOS>ATOM
      1 Sc          0.1998    0.2622    3.0205 Sc      1  UNL11       0.0000
      2 N           1.4236   -1.6838    2.8319 N.3     1  UNL11       0.0000
      3 N          -0.8232   -1.6093    2.6519 N.3     1  UNL11       0.0000
      4 C           0.2806   -2.3523    2.7318 C.3     1  UNL11       0.0000
      5 C           2.7064   -2.3824    2.8979 C.3     1  UNL11       0.0000
      6 C          -2.1889   -2.1331    2.6525 C.3     1  UNL11       0.0000
      7 C           2.5491   -3.8350    3.3673 C.3     1  UNL11       0.0000
      8 C           3.6237   -1.6079    3.8421 C.3     1  UNL11       0.0000
      9 C          -2.2169   -3.5684    3.1899 C.3     1  UNL11       0.0000
     10 C          -3.2175   -1.2454    3.3614 C.3     1  UNL11       0.0000
     11 N          -0.9111    1.1829    4.6146 N.3     1  UNL11       0.0000
     12 N           1.3332    1.3033    4.5053 N.3     1  UNL11       0.0000
     13 C           0.2160    1.6128    5.1632 C.3     1  UNL11       0.0000
     14 C          -2.2756    1.4819    5.0257 C.3     1  UNL11       0.0000
     15 C           2.6803    1.5358    5.0090 C.3     1  UNL11       0.0000
     16 C          -2.6486    2.9611    4.9385 C.3     1  UNL11       0.0000
     17 C          -2.4499    0.9351    6.4472 C.3     1  UNL11       0.0000
     18 C           2.8870    0.9271    6.3966 C.3     1  UNL11       0.0000
     19 C           2.9048    3.0481    5.0186 C.3     1  UNL11       0.0000
     20 Si          0.0000    0.0000    0.0000 Si      1  UNL11       0.0000
     21 O           0.3867    0.9535    1.2185 O.3     1  UNL1        0.0000
@<TRIPOS>BOND
     1     9     6    1
     2     6    10    1
     3     6     3    1
     4    16    14    1
     5    19    15    1
     6     1    12    1
     7     1    11    1
     8     3     4    1
     9    12    15    1
    10    12    13    1
    11    11    14    1
    12    11    13    1
    13    15    18    1
    14    14    17    1
    15     4     2    1
    16     2     5    1
    17     5     7    1
    18     5     8    1
    19     3     1    1
    20     2     1    1
    21     1    21    1
    22    21    20    1
