@<TRIPOS>MOLECULE
*****
 23 27 0 0 0
SMALL
GASTEIGER

@<TRIPOS>ATOM
      1 Ir          0.0000    0.0000    3.0000 Ir      1  UNL111      0.0000
      2 N          -2.0150   -0.4148    2.9548 N.3     1  UNL111      0.0000
      3 N           2.0227   -0.3372    2.9451 N.3     1  UNL111      0.0000
      4 C           0.0231   -1.9119    2.6982 C.ar    1  UNL111      0.0000
      5 C          -2.2762   -1.6709    2.7765 C.3     1  UNL111      0.0000
      6 C          -3.3008    0.3509    3.0522 C.3     1  UNL111      0.0000
      7 C           2.3149   -1.5733    2.7035 C.3     1  UNL111      0.0000
      8 C           3.2585    0.4424    3.2008 C.3     1  UNL111      0.0000
      9 C          -1.1700   -2.6113    2.5991 C.ar    1  UNL111      0.0000
     10 C           1.2592   -2.5600    2.5412 C.ar    1  UNL111      0.0000
     11 O          -3.5669   -2.0187    2.7555 O.3     1  UNL111      0.0000
     12 C          -4.3047   -0.8147    3.0328 C.3     1  UNL111      0.0000
     13 C          -3.3622    1.1115    4.3532 C.3     1  UNL111      0.0000
     14 C          -3.4290    1.2614    1.8642 C.3     1  UNL111      0.0000
     15 O           3.6380   -1.8587    2.6454 O.3     1  UNL111      0.0000
     16 C           4.3265   -0.5717    2.7520 C.3     1  UNL111      0.0000
     17 C           3.3409    0.7280    4.6988 C.3     1  UNL111      0.0000
     18 C           3.2866    1.7179    2.3622 C.3     1  UNL111      0.0000
     19 C          -1.1646   -3.9900    2.3459 C.ar    1  UNL111      0.0000
     20 C           1.3048   -3.9186    2.2967 C.ar    1  UNL111      0.0000
     21 C           0.0861   -4.6020    2.2122 C.ar    1  UNL111      0.0000
     22 C          -2.4206   -4.8105    2.2180 C.3     1  UNL111      0.0000
     23 C           2.6088   -4.6699    2.1261 C.3     1  UNL111      0.0000
@<TRIPOS>BOND
     1    16    15    1
     2    16     8    1
     3    15     7    1
     4    18     8    1
     5    23    20    1
     6     8     3    1
     7     8    17    1
     8     7     3    1
     9     7    10    1
    10     3     1    1
    11    20    10   ar
    12    20    21   ar
    13    10     4   ar
    14    21    19   ar
    15     4     1    1
    16     4     9   ar
    17     1     2    1
    18    19     9   ar
    19    19    22    1
    20     9     5    1
    21     2     5    1
    22     2     6    1
    23     5    11    1
    24    14     6    1
    25    11    12    1
    26     6    12    1
    27     6    13    1
