@<TRIPOS>MOLECULE
*****
 19 18 0 0 0
SMALL
GASTEIGER

@<TRIPOS>ATOM
      1 Si          0.0000    0.0000    0.0000 Si      1  UNL1        0.0000
      2 O           0.0184    0.0291    1.6186 O.3     1  UNL1        0.0000
      3 ZR          0.5131   -0.5424    3.4754 Zr      1  UNL1        0.0000
      4 O          -0.8594    0.0785    4.6762 O.3     1  UNL1        0.0000
      5 O           2.2865    0.1549    3.9863 O.3     1  UNL1        0.0000
      6 O           0.6181   -2.4762    3.6312 O.3     1  UNL1        0.0000
      7 C          -2.1292    0.1962    5.3264 C.3     1  UNL1        0.0000
      8 C           3.1662    0.8481    4.9112 C.3     1  UNL1        0.0000
      9 C           1.1656   -3.5535    4.4219 C.3     1  UNL1        0.0000
     10 C          -1.9311    1.0595    6.5784 C.3     1  UNL1        0.0000
     11 C          -2.6061   -1.2107    5.7105 C.3     1  UNL1        0.0000
     12 C          -3.1106    0.8534    4.3471 C.3     1  UNL1        0.0000
     13 C           2.6271    2.2644    5.1139 C.3     1  UNL1        0.0000
     14 C           4.5755    0.8930    4.3102 C.3     1  UNL1        0.0000
     15 C           3.1840    0.0819    6.2360 C.3     1  UNL1        0.0000
     16 C           0.4065   -4.8436    4.0949 C.3     1  UNL1        0.0000
     17 C           2.6532   -3.6818    4.0737 C.3     1  UNL1        0.0000
     18 C           0.9788   -3.1945    5.9008 C.3     1  UNL1        0.0000
     19 Si         10.0000    0.0000    0.0000 Si      1  UNL1        0.0000
@<TRIPOS>BOND
     1     1     2    1
     2     2     3    1
     3     3     6    1
     4     3     5    1
     5     3     4    1
     6     6     9    1
     7     5     8    1
     8    17     9    1
     9    16     9    1
    10    14     8    1
    11    12     7    1
    12     9    18    1
    13     4     7    1
    14     8    13    1
    15     8    15    1
    16     7    11    1
    17     7    10    1
    18     1    19    1
