@<TRIPOS>MOLECULE
*****
 31 35 0 0 0
SMALL
GASTEIGER

@<TRIPOS>ATOM
      1 SI          0.0000    0.0000    1.4000 Si      1  UNL11       0.0000
      2 C          -0.0001    0.0000    3.2730 C.3     1  UNL11       0.0000
      3 C           0.7286    0.2335    4.5983 C.3     1  UNL11       0.0000
      4 C           1.6316    1.4665    4.5150 C.3     1  UNL11       0.0000
      5 N           3.0109    1.0600    4.3035 N.am    1  UNL11      -1.0000
      6 C           3.4870   -0.1814    4.6133 C.2     1  UNL11       0.0000
      7 O           2.7303   -1.0118    5.0933 O.2     1  UNL11       0.0000
      8 N           4.7973   -0.4867    4.3522 N.am    1  UNL11      -1.0000
      9 C           9.6477   -4.1678    5.1513 C.2     1  UNL11      -1.0000
     10 C           8.8912   -5.3227    5.3884 C.2     1  UNL11      -1.0000
     11 C           9.0125   -2.9817    4.9343 C.2     1  UNL11      -1.0000
     12 N           7.5739   -5.3057    5.3960 N.2     1  UNL11       1.0000
     13 C           7.6116   -2.9219    4.9282 C.2     1  UNL11       0.0000
     14 C           6.9184   -4.1210    5.1619 C.2     1  UNL11       0.0000
     15 C           6.8615   -1.7271    4.6924 C.2     1  UNL11      -1.0000
     16 C           3.5347   -5.3750    5.3126 C.2     1  UNL11      -1.0000
     17 C           3.3888   -3.0254    4.8994 C.2     1  UNL11      -1.0000
     18 C           2.7732   -4.2096    5.0799 C.2     1  UNL11      -1.0000
     19 C           4.7802   -2.9453    4.9238 C.2     1  UNL11       0.0000
     20 C           5.4850   -4.1319    5.1530 C.2     1  UNL11       0.0000
     21 C           5.5235   -1.7360    4.6879 C.2     1  UNL11       0.0000
     22 N           4.8666   -5.3279    5.3611 N.2     1  UNL11       1.0000
     23 ZN          6.2073   -6.8443    5.8241 Zn      1  UNL11       0.0000
     24 O           7.0983   -7.2572    7.6811 O.3     1  UNL11       0.0000
     25 C           6.0850   -7.4539    8.2910 C.2     1  UNL11      -1.0000
     26 O           5.0258   -7.3696    7.7314 O.3     1  UNL11       0.0000
     27 C           6.1379   -7.7398    9.7524 C.3     1  UNL11       0.0000
     28 O           6.0845   -8.5421    4.9382 O.3     1  UNL11       0.0000
     29 C           6.3360   -8.4972    3.7249 C.2     1  UNL11       0.0000
     30 C           6.2284   -9.7712    2.9391 C.3     1  UNL11       0.0000
     31 O           6.6296   -7.4367    3.1536 O.2     1  UNL11       0.0000
@<TRIPOS>BOND
     1     1     2    1
     2    30    29    1
     3    31    29    2
     4     2     3    1
     5    29    28    1
     6     5     4    1
     7     5     6    1
     8     8     6    1
     9     8    21    1
    10     4     3    1
    11     6     7    2
    12    21    15    2
    13    21    19    1
    14    15    13    1
    15    17    19    2
    16    17    18    1
    17    19    20    1
    18    13    11    2
    19    13    14    1
    20    11     9    1
    21    28    23    1
    22    18    16    2
    23     9    10    2
    24    20    14    1
    25    20    22    2
    26    14    12    2
    27    16    22    1
    28    22    23    1
    29    10    12    1
    30    12    23    1
    31    23    24    1
    32    23    26    1
    33    24    25    1
    34    26    25    1
    35    25    27    1
