@<TRIPOS>MOLECULE
*****
 161 170 0 0 0
SMALL
GASTEIGER

@<TRIPOS>ATOM
      1 PD          0.0000    0.0000    5.0000 PD      1  UNL11       0.0000
      2 N          -0.8260    0.7642    6.6509 N.pl3   1  UNL11       0.0000
      3 N           0.8479   -1.1934    6.3657 N.pl3   1  UNL11       0.0000
      4 C          -0.4529    0.2084    7.7565 C.2     1  UNL11       0.0000
      5 C          -1.7887    1.8447    6.5816 C.ar    1  UNL11       0.0000
      6 C           0.4650   -0.9801    7.5786 C.2     1  UNL11       0.0000
      7 C           1.8142   -2.2180    6.0312 C.ar    1  UNL11       0.0000
      8 C           3.1725   -1.8544    6.0055 C.ar    1  UNL11       0.0000
      9 C           4.1108   -2.8074    5.6129 C.ar    1  UNL11       0.0000
     10 C           3.6153   -0.4586    6.4515 C.3     1  UNL11       0.0000
     11 C           1.3975   -3.5132    5.6566 C.ar    1  UNL11       0.0000
     12 C           2.3815   -4.4184    5.2424 C.ar    1  UNL11       0.0000
     13 C          -0.0708   -3.9328    5.7175 C.3     1  UNL11       0.0000
     14 C           3.7358   -4.0929    5.2203 C.ar    1  UNL11       0.0000
     15 C           4.7763   -5.0805    4.7488 C.3     1  UNL11       0.0000
     16 H           2.1160   -5.2867    4.9657 H       1  UNL11       0.0000
     17 H           5.0326   -2.5748    5.6120 H       1  UNL11       0.0000
     18 C          -1.3412    3.1606    6.4126 C.ar    1  UNL11       0.0000
     19 C          -3.1659    1.5307    6.5553 C.ar    1  UNL11       0.0000
     20 C          -4.0627    2.5730    6.3210 C.ar    1  UNL11       0.0000
     21 C          -3.6816    0.1246    6.8575 C.3     1  UNL11       0.0000
     22 C          -2.2901    4.1622    6.1789 C.ar    1  UNL11       0.0000
     23 C           0.1269    3.5538    6.5610 C.3     1  UNL11       0.0000
     24 C          -3.6515    3.8878    6.1093 C.ar    1  UNL11       0.0000
     25 C          -4.6409    4.9842    5.8066 C.3     1  UNL11       0.0000
     26 H          -1.9950    5.0576    6.0648 H       1  UNL11       0.0000
     27 H          -4.9927    2.3787    6.3045 H       1  UNL11       0.0000
     28 C           0.8077   -1.8205    8.7593 C.3     1  UNL11       0.0000
     29 C          -0.8135    0.6610    9.1319 C.3     1  UNL11       0.0000
     30 C           3.6044   -0.3532    7.9731 C.ar    1  UNL11       0.0000
     31 C           4.9340    0.0119    5.8277 C.ar    1  UNL11       0.0000
     32 C          -3.9054   -0.0619    8.3541 C.ar    1  UNL11       0.0000
     33 C          -4.9056   -0.2743    6.0255 C.ar    1  UNL11       0.0000
     34 C           0.4551    3.9485    8.0043 C.ar    1  UNL11       0.0000
     35 C           0.5273    4.6166    5.5254 C.ar    1  UNL11       0.0000
     36 C          -0.4788   -4.4589    7.0921 C.ar    1  UNL11       0.0000
     37 C          -0.4360   -4.9108    4.6007 C.ar    1  UNL11       0.0000
     38 C           5.9858    0.4889    6.6049 C.ar    1  UNL11       0.0000
     39 C           7.1469    0.9845    6.0017 C.ar    1  UNL11       0.0000
     40 H           5.9144    0.4774    7.5526 H       1  UNL11       0.0000
     41 C           5.0644    0.0395    4.4381 C.ar    1  UNL11       0.0000
     42 C           4.2079   -1.3188    8.7802 C.ar    1  UNL11       0.0000
     43 C           2.9879    0.7418    8.5840 C.ar    1  UNL11       0.0000
     44 C           4.1656   -1.2048   10.1653 C.ar    1  UNL11       0.0000
     45 C           3.5307   -0.1169   10.7638 C.ar    1  UNL11       0.0000
     46 H           4.5716   -1.8722   10.7059 H       1  UNL11       0.0000
     47 C           6.2175    0.5261    3.8429 C.ar    1  UNL11       0.0000
     48 H           4.3546   -0.2783    3.8933 H       1  UNL11       0.0000
     49 H           4.6496   -2.0588    8.3800 H       1  UNL11       0.0000
     50 C           7.2585    0.9966    4.6209 C.ar    1  UNL11       0.0000
     51 H           6.2935    0.5360    2.8955 H       1  UNL11       0.0000
     52 C           2.9496    0.8611    9.9654 C.ar    1  UNL11       0.0000
     53 H           2.5262    1.6119   10.3650 H       1  UNL11       0.0000
     54 H           7.8593    1.3118    6.5388 H       1  UNL11       0.0000
     55 H           3.4952   -0.0459   11.7109 H       1  UNL11       0.0000
     56 H           2.5887    1.4143    8.0444 H       1  UNL11       0.0000
     57 H           8.0481    1.3265    4.2094 H       1  UNL11       0.0000
     58 C          -0.4321   -4.4644    3.2920 C.ar    1  UNL11       0.0000
     59 C          -0.8273   -6.2298    4.8439 C.ar    1  UNL11       0.0000
     60 C          -1.1761   -7.0692    3.7861 C.ar    1  UNL11       0.0000
     61 H          -0.8561   -6.5566    5.7345 H       1  UNL11       0.0000
     62 C          -1.1685   -6.6029    2.4866 C.ar    1  UNL11       0.0000
     63 C          -0.7981   -5.2873    2.2398 C.ar    1  UNL11       0.0000
     64 H          -1.4148   -7.1751    1.7698 H       1  UNL11       0.0000
     65 H          -1.4211   -7.9693    3.9608 H       1  UNL11       0.0000
     66 H          -0.7954   -4.9518    1.3508 H       1  UNL11       0.0000
     67 H          -0.1712   -3.5684    3.1103 H       1  UNL11       0.0000
     68 C          -1.7801   -4.2503    7.5260 C.ar    1  UNL11       0.0000
     69 C           0.3765   -5.1842    7.9099 C.ar    1  UNL11       0.0000
     70 C          -2.2230   -4.7473    8.7543 C.ar    1  UNL11       0.0000
     71 H          -2.3815   -3.7606    6.9774 H       1  UNL11       0.0000
     72 C          -0.0536   -5.6697    9.1350 C.ar    1  UNL11       0.0000
     73 H           1.2676   -5.3507    7.6272 H       1  UNL11       0.0000
     74 C          -1.3582   -5.4510    9.5529 C.ar    1  UNL11       0.0000
     75 H           0.5473   -6.1541    9.6903 H       1  UNL11       0.0000
     76 H          -1.6522   -5.7881   10.3917 H       1  UNL11       0.0000
     77 H          -3.1175   -4.5987    9.0352 H       1  UNL11       0.0000
     78 C          -5.9056   -1.0950    6.5507 C.ar    1  UNL11       0.0000
     79 C          -6.9634   -1.5245    5.7581 C.ar    1  UNL11       0.0000
     80 H          -5.8620   -1.3634    7.4603 H       1  UNL11       0.0000
     81 C          -7.0615   -1.1263    4.4430 C.ar    1  UNL11       0.0000
     82 C          -6.0703   -0.3197    3.8979 C.ar    1  UNL11       0.0000
     83 H          -7.8005   -1.4019    3.9129 H       1  UNL11       0.0000
     84 C          -5.0071    0.1050    4.6833 C.ar    1  UNL11       0.0000
     85 H          -4.3386    0.6622    4.3035 H       1  UNL11       0.0000
     86 C          -4.3799    0.9530    9.1664 C.ar    1  UNL11       0.0000
     87 C          -3.6354   -1.3021    8.9437 C.ar    1  UNL11       0.0000
     88 C          -4.5631    0.7632   10.5355 C.ar    1  UNL11       0.0000
     89 H          -4.5864    1.7968    8.7831 H       1  UNL11       0.0000
     90 H          -6.1203   -0.0587    2.9861 H       1  UNL11       0.0000
     91 H          -7.6247   -2.0972    6.1269 H       1  UNL11       0.0000
     92 C          -3.8277   -1.4965   10.3110 C.ar    1  UNL11       0.0000
     93 H          -3.3174   -2.0185    8.4067 H       1  UNL11       0.0000
     94 C          -4.2827   -0.4591   11.1072 C.ar    1  UNL11       0.0000
     95 H          -4.4015   -0.5894   12.0411 H       1  UNL11       0.0000
     96 H          -4.8817    1.4784   11.0752 H       1  UNL11       0.0000
     97 H          -3.6458   -2.3443   10.6988 H       1  UNL11       0.0000
     98 C          -0.5341    4.1948    8.9569 C.ar    1  UNL11       0.0000
     99 C           1.7921    4.0572    8.4001 C.ar    1  UNL11       0.0000
    100 C           2.1290    4.4243    9.6960 C.ar    1  UNL11       0.0000
    101 H           2.4808    3.8773    7.7710 H       1  UNL11       0.0000
    102 C           1.1362    4.6596   10.6354 C.ar    1  UNL11       0.0000
    103 H           3.0417    4.5141    9.9407 H       1  UNL11       0.0000
    104 C          -0.1861    4.5330   10.2684 C.ar    1  UNL11       0.0000
    105 H          -1.4507    4.1335    8.7138 H       1  UNL11       0.0000
    106 H          -0.8686    4.6770   10.9137 H       1  UNL11       0.0000
    107 H           1.3661    4.9057   11.5244 H       1  UNL11       0.0000
    108 C           1.1909    5.7918    5.8524 C.ar    1  UNL11       0.0000
    109 C           1.6186    6.6732    4.8546 C.ar    1  UNL11       0.0000
    110 H           1.3563    6.0000    6.7643 H       1  UNL11       0.0000
    111 C           0.6677    5.2503    3.1904 C.ar    1  UNL11       0.0000
    112 C           0.2567    4.3718    4.1795 C.ar    1  UNL11       0.0000
    113 C           1.3727    6.4000    3.5228 C.ar    1  UNL11       0.0000
    114 H           0.4655    5.0649    2.2812 H       1  UNL11       0.0000
    115 H           2.0820    7.4676    5.0954 H       1  UNL11       0.0000
    116 H           1.6821    6.9900    2.8440 H       1  UNL11       0.0000
    117 H          -0.2195    3.5864    3.9359 H       1  UNL11       0.0000
    118 AL          7.7782    7.7782    5.0000 Al      2  UNL22       0.0000
    119 O           9.5660    7.9836    5.5753 O.3     2  UNL22       0.0000
    120 O           6.8262    9.4184    4.9321 O.3     2  UNL22       0.0000
    121 O           6.8581    6.3402    5.8202 O.3     2  UNL22       0.0000
    122 O           7.9178    7.2750    3.2403 O.3     2  UNL22       0.0000
    123 C          10.3853    7.2194    6.4561 C.3     2  UNL22       0.0000
    124 C           5.5961    6.2728    6.4832 C.3     2  UNL22       0.0000
    125 C           7.1953   10.7073    5.4223 C.3     2  UNL22       0.0000
    126 C          11.1940    6.1683    5.6392 C.3     2  UNL22       0.0000
    127 C           9.5929    6.5077    7.5916 C.3     2  UNL22       0.0000
    128 C          11.3611    8.2541    7.0943 C.3     2  UNL22       0.0000
    129 C           6.1081   11.6833    4.8707 C.3     2  UNL22       0.0000
    130 C           8.5901   11.1867    4.8974 C.3     2  UNL22       0.0000
    131 C           7.1486   10.7322    6.9770 C.3     2  UNL22       0.0000
    132 C           5.7707    6.6675    7.9779 C.3     2  UNL22       0.0000
    133 C           5.1699    4.7750    6.4033 C.3     2  UNL22       0.0000
    134 C           4.4866    7.1401    5.8053 C.3     2  UNL22       0.0000
    135 F           4.7389    8.4849    5.9310 F       2  UNL22       0.0000
    136 F           3.2562    6.9133    6.4004 F       2  UNL22       0.0000
    137 F           4.3777    6.8377    4.4599 F       2  UNL22       0.0000
    138 F           6.6812    5.8407    8.6088 F       2  UNL22       0.0000
    139 F           4.5736    6.5786    8.6660 F       2  UNL22       0.0000
    140 F           6.2243    7.9606    8.0852 F       2  UNL22       0.0000
    141 F           5.8884   10.3965    7.4349 F       2  UNL22       0.0000
    142 F           7.4540   11.9884    7.4696 F       2  UNL22       0.0000
    143 F           8.0575    9.8415    7.5039 F       2  UNL22       0.0000
    144 F           6.1578    3.9616    6.9317 F       2  UNL22       0.0000
    145 F           4.9767    4.3924    5.0875 F       2  UNL22       0.0000
    146 F           3.9981    4.5382    7.1035 F       2  UNL22       0.0000
    147 F          10.3440    5.2641    5.0279 F       2  UNL22       0.0000
    148 F          12.0588    5.4633    6.4618 F       2  UNL22       0.0000
    149 F          11.9414    6.7804    4.6492 F       2  UNL22       0.0000
    150 F           8.8124    5.4873    7.0919 F       2  UNL22       0.0000
    151 F           8.7996    7.4132    8.2636 F       2  UNL22       0.0000
    152 F          10.4486    5.9317    8.5136 F       2  UNL22       0.0000
    153 F           6.1354   11.7100    3.4869 F       2  UNL22       0.0000
    154 F           6.2938   12.9753    5.3338 F       2  UNL22       0.0000
    155 F           4.8434   11.2693    5.2515 F       2  UNL22       0.0000
    156 F           8.6484   11.1072    3.5177 F       2  UNL22       0.0000
    157 F           9.6244   10.4445    5.4140 F       2  UNL22       0.0000
    158 F           8.8279   12.5004    5.2659 F       2  UNL22       0.0000
    159 F          12.0885    8.9031    6.1112 F       2  UNL22       0.0000
    160 F          12.2537    7.6556    7.9661 F       2  UNL22       0.0000
    161 F          10.6546    9.2164    7.7929 F       2  UNL22       0.0000
@<TRIPOS>BOND
     1    66    63    1
     2    64    62    1
     3    63    62   ar
     4    63    58   ar
     5   114   111    1
     6    62    60   ar
     7   116   113    1
     8    51    47    1
     9    90    82    1
    10    67    58    1
    11   111   113   ar
    12   111   112   ar
    13   122   118    1
    14    58    37   ar
    15   153   129    1
    16   156   130    1
    17   113   109   ar
    18    60    65    1
    19    60    59   ar
    20    47    41   ar
    21    47    50   ar
    22    48    41    1
    23    82    81   ar
    24    82    84   ar
    25    83    81    1
    26   117   112    1
    27   112    35   ar
    28    57    50    1
    29    85    84    1
    30    41    31   ar
    31    81    79   ar
    32   137   134    1
    33    37    59   ar
    34    37    13    1
    35    50    39   ar
    36   149   126    1
    37    84    33   ar
    38    15    14    1
    39    59    61    1
    40   109   115    1
    41   109   108   ar
    42   129   155    1
    43   129   154    1
    44   129   125    1
    45   130   158    1
    46   130   157    1
    47   130   125    1
    48   120   118    1
    49   120   125    1
    50    16    12    1
    51   118   119    1
    52   118   121    1
    53     1     3    1
    54     1     2    1
    55   147   126    1
    56   145   133    1
    57    14    12   ar
    58    14     9   ar
    59    12    11   ar
    60   125   131    1
    61    35   108   ar
    62    35    23    1
    63   119   123    1
    64    17     9    1
    65     9     8   ar
    66   126   123    1
    67   126   148    1
    68    11    13    1
    69    11     7   ar
    70    13    36    1
    71    79    91    1
    72    79    78   ar
    73   134   135    1
    74   134   136    1
    75   134   124    1
    76    25    24    1
    77   121   124    1
    78    31    10    1
    79    31    38   ar
    80   108   110    1
    81    39    54    1
    82    39    38   ar
    83     8     7   ar
    84     8    10    1
    85    33    78   ar
    86    33    21    1
    87     7     3    1
    88    26    22    1
    89    24    22   ar
    90    24    20   ar
    91   159   128    1
    92    22    18   ar
    93    27    20    1
    94    20    19   ar
    95     3     6    1
    96   133   124    1
    97   133   144    1
    98   133   146    1
    99    18    23    1
   100    18     5   ar
   101    10    30    1
   102   123   128    1
   103   123   127    1
   104   124   132    1
   105    78    80    1
   106    19     5   ar
   107    19    21    1
   108    23    34    1
   109     5     2    1
   110    38    40    1
   111     2     4    1
   112    21    32    1
   113   131   141    1
   114   131   142    1
   115   131   143    1
   116    71    68    1
   117   150   127    1
   118    36    68   ar
   119    36    69   ar
   120   128   161    1
   121   128   160    1
   122    68    70   ar
   123     6     4    2
   124     6    28    1
   125   127   151    1
   126   127   152    1
   127    73    69    1
   128     4    29    1
   129   101    99    1
   130    69    72   ar
   131    30    43   ar
   132    30    42   ar
   133   132   140    1
   134   132   138    1
   135   132   139    1
   136    34    99   ar
   137    34    98   ar
   138    56    43    1
   139    32    87   ar
   140    32    86   ar
   141    49    42    1
   142    99   100   ar
   143    93    87    1
   144    43    52   ar
   145   105    98    1
   146    70    77    1
   147    70    74   ar
   148    42    44   ar
   149    89    86    1
   150    87    92   ar
   151    98   104   ar
   152    72    74   ar
   153    72    75    1
   154    86    88   ar
   155    74    76    1
   156   100   103    1
   157   100   102   ar
   158    52    53    1
   159    52    45   ar
   160    44    46    1
   161    44    45   ar
   162   104   102   ar
   163   104   106    1
   164    92    97    1
   165    92    94   ar
   166    88    96    1
   167    88    94   ar
   168   102   107    1
   169    45    55    1
   170    94    95    1
